%%%%%%%%%%%%%%%%%%%%%%%%%%%%%%%%%%%%%%%%%%%%%%%%%%%%%%%%%%%%%%%%%%%%%%%%%%%%%%%%%
%                                                                               %
% SU2 configuration file                                                        %
% Case description: Multizone Fluid-Fluid Test Config)                          %
%                                                                               %
%%%%%%%%%%%%%%%%%%%%%%%%%%%%%%%%%%%%%%%%%%%%%%%%%%%%%%%%%%%%%%%%%%%%%%%%%%%%%%%%%
%
% Enable Multizone mode
SOLVER= MULTIPHYSICS
MULTIZONE= YES
MULTIZONE_MESH= YES
%
CONFIG_LIST= config_inlet.cfg, config_outlet.cfg, config_core.cfg
%
MARKER_ZONE_INTERFACE= inflow_intf_1, inflow_intf_2,\
                     outflow_intf_1, outflow_intf_2
%
%
MARKER_FLUID_INTERFACE= inflow_intf_1, inflow_intf_2,\
                     outflow_intf_1, outflow_intf_2
%
% Number of total iterations
OUTER_ITER= 4000
%
%
% Mesh input file
MESH_FILENAME= combi_mesh.su2
%
% Mesh input file format (SU2, CGNS, NETCDF_ASCII)
MESH_FORMAT= SU2
%
% --------------------------- CONVERGENCE PARAMETERS --------------------------%
%
CONV_FIELD= RMS_PRESSURE[0], RMS_PRESSURE[1], RMS_PRESSURE[2]
CONV_CAUCHY_EPS= 1e-5
CONV_RESIDUAL_MINVAL= -99
CONV_CAUCHY_ELEMS= 100
CONV_STARTITER= 10
%
% -------------------------------------- OUTPUT -------------------------------%
%
SCREEN_OUTPUT= OUTER_ITER, RMS_RES[0], RMS_RES[1], RMS_RES[2]
SCREEN_WRT_FREQ_OUTER= 1
%
HISTORY_OUTPUT= ITER, BGS_RES[0], BGS_RES[1], BGS_RES[2], RMS_RES[0], RMS_RES[1], RMS_RES[2],COMBO, CUSTOM[0], CUSTOM[1], CUSTOM[2]
OUTPUT_PRECISION= 16
%
OUTPUT_FILES= RESTART, PARAVIEW_MULTIBLOCK
VOLUME_OUTPUT= RESIDUAL, PRIMITIVE
OUTPUT_WRT_FREQ= 2000
WRT_PERFORMANCE=YES
%
SOLUTION_FILENAME= restart
SOLUTION_ADJ_FILENAME= restart_adj
%
% -------------------- FREE-FORM DEFORMATION PARAMETERS -----------------------%
%
% FFD box definition: 3D case (FFD_BoxTag, X1, Y1, Z1, X2, Y2, Z2, X3, Y3, Z3, X4, Y4, Z4,
%                              X5, Y5, Z5, X6, Y6, Z6, X7, Y7, Z7, X8, Y8, Z8)
%                     2D case (FFD_BoxTag, X1, Y1, 0.0, X2, Y2, 0.0, X3, Y3, 0.0, X4, Y4, 0.0,
%                              0.0, 0.0, 0.0, 0.0, 0.0, 0.0, 0.0, 0.0, 0.0, 0.0, 0.0, 0.0)
% Start at the lowest leftest corner and turn counter-clockwise 
%(BOX, 0.0, -0.004, 0.0,1.19, -0.004, 0.0 ,1.19, 0.03, 0.0, 0.0, 0.03, 0.0, 0.0, 0.0 ,0.0, 0.0 ,0.0, 0.0, 0.0, 0.0, 0.0, 0.0, 0.0, 0.0 )
FFD_DEFINITION= (BOX, \
0.35, 0.35, 0.0, \
0.65, 0.35, 0.0 \
0.65, 0.65, 0.0, \
0.35, 0.65, 0.0, \
0.0, 0.0 ,0.0, \
0.0 ,0.0, 0.0, \
0.0, 0.0, 0.0, \
0.0, 0.0, 0.0 )
%
% FFD box degree: 3D case (i_degree, j_degree, k_degree)
%                 2D case (i_degree, j_degree, 0)
FFD_DEGREE= (3, 2, 0)
%
DV_KIND= FFD_CONTROL_POINT_2D, FFD_CONTROL_POINT_2D, FFD_CONTROL_POINT_2D, FFD_CONTROL_POINT_2D, FFD_CONTROL_POINT_2D, FFD_CONTROL_POINT_2D, FFD_CONTROL_POINT_2D, FFD_CONTROL_POINT_2D, FFD_CONTROL_POINT_2D, FFD_CONTROL_POINT_2D, FFD_CONTROL_POINT_2D, FFD_CONTROL_POINT_2D
%
DV_MARKER= ( fin_wall )
%
% Parameters of the shape deformation
DV_PARAM= (BOX, 0, 0, 0.0, 1.0 ); (BOX, 1, 0, 0.0, 1.0 ); (BOX, 2, 0, 0.0, 1.0 ); (BOX, 3, 0, 0.0, 1.0 ); (BOX, 0, 1, 0.0, 1.0 ); (BOX, 1, 1, 0.0, 1.0 ); (BOX, 2, 1, 0.0, 1.0 ); (BOX, 3, 1, 0.0, 1.0 ); (BOX, 0, 2, 0.0, 1.0 ); (BOX, 1, 2, 0.0, 1.0 ); (BOX, 2, 2, 0.0, 1.0 ); (BOX, 3, 2, 0.0, 1.0 )
%
DV_VALUE = __FFD_PTS__

